*SPEF "IEEE 1481-1998"
*DESIGN "sample_design"
*DATE "2024-11-15 10:30:00"
*VENDOR "OpenSTA"
*PROGRAM "write_spef"
*VERSION "2.6.0"
*DESIGN_FLOW "ROUTE_FINISHED"
*DIVIDER /
*DELIMITER :
*BUS_DELIMITER []
*T_UNIT 1 NS
*C_UNIT 1 FF
*R_UNIT 1 OHM
*L_UNIT 1 HENRY

*NAME_MAP
*1 clk
*2 n1
*3 data_out

*D_NET *1 2.850
*CONN
*D sample_design:clk
*L data_reg_0:CK
*L valid_reg:CK
*CAP
1 sample_design:clk 0.620
2 data_reg_0:CK 1.050
3 valid_reg:CK 1.180
*RES
1 sample_design:clk data_reg_0:CK 3.200
2 data_reg_0:CK valid_reg:CK 2.750
*END

*D_NET *2 1.430
*CONN
*D U1:Y
*L U2:A
*L U3:A
*CAP
1 U1:Y 0.310
2 U2:A 0.580
3 U3:A 0.540
*RES
1 U1:Y U2:A 2.100
2 U2:A U3:A 1.850
*END

*D_NET *3 0.980
*CONN
*D U3:Y
*L sample_design:data_out
*CAP
1 U3:Y 0.420
2 sample_design:data_out 0.560
*RES
1 U3:Y sample_design:data_out 1.620
*END
